-------------------------------------------------------------------------
|    ___ _   _ ___                                                      |
|   / __| | | |_  )   Release 5.0.0  "Raven"                            |
|   \__ \ |_| |/ /                                                      |
|   |___/\___//___|   Suite (Computational Fluid Dynamics Code)         |
|                                                                       |
-------------------------------------------------------------------------
| SU2 Original Developers: Dr. Francisco D. Palacios.                   |
|                          Dr. Thomas D. Economon.                      |
-------------------------------------------------------------------------
| SU2 Developers:                                                       |
| - Prof. Juan J. Alonso's group at Stanford University.                |
| - Prof. Piero Colonna's group at Delft University of Technology.      |
| - Prof. Nicolas R. Gauger's group at Kaiserslautern U. of Technology. |
| - Prof. Alberto Guardone's group at Polytechnic University of Milan.  |
| - Prof. Rafael Palacios' group at Imperial College London.            |
| - Prof. Edwin van der Weide's group at the University of Twente.      |
| - Prof. Vincent Terrapon's group at the University of Liege.          |
-------------------------------------------------------------------------
| Copyright (C) 2012-2017 SU2, the open-source CFD code.                |
|                                                                       |
| SU2 is free software; you can redistribute it and/or                  |
| modify it under the terms of the GNU Lesser General Public            |
| License as published by the Free Software Foundation; either          |
| version 2.1 of the License, or (at your option) any later version.    |
|                                                                       |
| SU2 is distributed in the hope that it will be useful,                |
| but WITHOUT ANY WARRANTY; without even the implied warranty of        |
| MERCHANTABILITY or FITNESS FOR A PARTICULAR PURPOSE. See the GNU      |
| Lesser General Public License for more details.                       |
|                                                                       |
| You should have received a copy of the GNU Lesser General Public      |
| License along with SU2. If not, see <http://www.gnu.org/licenses/>.   |
-------------------------------------------------------------------------

------------------------ Physical Case Definition -----------------------
Compressible Euler equations.
Mach number: 1.
Angle of attack (AoA): 0 deg, and angle of sideslip (AoS): 0 deg.
No restart solution, use the values at infinity (freestream).
Dimensional simulation.
The reference area is 1 m^2.
The semi-span will be computed using the max y(3D) value.
The reference length is 1 m.
Surface(s) where the force coefficients are evaluated and
their reference origin for moment computation:
   - Nozzle (0.25, 0, 0).
   - Symmetry (0.25, 0, 0) m.
Surface(s) plotted in the output file: Symmetry.
Input mesh file name: Output_Mesh.su2

---------------------- Space Numerical Integration ----------------------
HLLC solver for the flow inviscid terms.
Second order integration in space, with slope limiter.
Venkatakrishnan slope-limiting method, with constant: 0.05.
The reference element size is: 1.
Gradient Computation using weighted Least-Squares method.

---------------------- Time Numerical Integration -----------------------
Local time stepping (steady state simulation).
Euler implicit method for the flow equations.
FGMRES is used for solving the linear system.
Using a LU-SGS preconditioning.
Convergence criteria of the linear solver: 1e-06.
Max number of linear iterations: 10.
W Multigrid Cycle, with 3 multigrid levels.
Damping factor for the residual restriction: 0.8.
Damping factor for the correction prolongation: 0.8.
CFL adaptation. Factor down: 1.5, factor up: 0.5,
                lower limit: 1, upper limit: 100.
Multigrid Level:                       0     1     2     3
Courant-Friedrichs-Lewy number:        4
MG PreSmooth coefficients:             1     2     3     3
MG PostSmooth coefficients:            0     0     0     0
MG CorrecSmooth coefficients:          0     0     0     0

------------------------- Convergence Criteria --------------------------
Maximum number of iterations: 10000.
Reduce the density residual 6 orders of magnitude.
The minimum bound for the density residual is 10^(-8).
Start convergence criteria at iteration 10.

-------------------------- Output Information ---------------------------
Writing a flow solution every 250 iterations.
Writing the convergence history every 1 iterations.
The output file format is Paraview ASCII (.vtk).
Convergence history file name: history.
Forces breakdown file name: forces_breakdown.dat.
Surface flow coefficients file name: surface_flow.
Flow variables file name: flow.
Restart flow file name: restart_flow.dat.

------------------- Config File Boundary Information --------------------
Euler wall boundary marker(s): Nozzle.
Far-field boundary marker(s): Inlet.
Symmetry plane boundary marker(s): Symmetry.
Supersonic outlet boundary marker(s): Outlet.

---------------------- Read Grid File Information -----------------------
Two dimensional problem.
13032 points.
4 surface markers.
60 boundary elements in index 0 (Marker = Outlet).
217 boundary elements in index 1 (Marker = Symmetry).
20 boundary elements in index 2 (Marker = Inlet).
233 boundary elements in index 3 (Marker = Nozzle).
25532 triangles.

------------------------- Geometry Preprocessing ------------------------
Setting point connectivity.
Renumbering points (Reverse Cuthill McKee Ordering).
Recomputing point connectivity.
Setting element connectivity.
Checking the numerical grid orientation.
There has been a re-orientation of the TRIANGLE volume elements.
There has been a re-orientation of the LINE surface elements.
Identifying edges and vertices.
Computing centers of gravity.
Setting the control volume structure.
Area of the computational grid: 25.9.
Searching for the closest normal neighbors to the surfaces.
Storing a mapping from global to local point index.
Compute the surface curvature.
Max K: 29.1. Mean K: 0.423. Standard deviation K: 3.32.
Checking for periodicity.
Setting the multigrid structure.
MG level: 0 -> CVs: 13032. Agglomeration rate 1/1.00. CFL 4.
MG level: 1 -> CVs: 3841. Agglomeration rate 1/3.39. CFL 3.26.
MG level: 2 -> CVs: 1100. Agglomeration rate 1/3.49. CFL 2.61.
MG level: 3 -> CVs: 322. Agglomeration rate 1/3.42. CFL 2.12.
Computing wall distances.
Wetted area = 11.1 m.
Area projection in the x-plane = 0 m, y-plane = 10.9 m.
Max. coordinate in the x-direction = 10.9 m, y-direction = 2.99 m.
Min coordinate in the x-direction = 0 m, y-direction = 1 m,.

------------------------- Driver information --------------------------
A Fluid driver has been instantiated.

------------------------ Iteration Preprocessing ------------------------
Zone 1: Euler/Navier-Stokes/RANS fluid iteration.

------------------------- Solver Preprocessing --------------------------
Inviscid flow: Computing density based on free-stream
temperature and pressure using the ideal gas law.
Force coefficients computed using free-stream values.
-- Input conditions:
Fluid Model: STANDARD_AIR
Specific gas constant: 287.058 N.m/kg.K.
Specific gas constant (non-dim): 287.058
Specific Heat Ratio: 1.4
Free-stream static pressure: 3.69797e+06 Pa.
Free-stream total pressure: 7e+06 Pa.
Free-stream temperature: 2965 K.
Free-stream density: 4.3448 kg/m^3.
Free-stream velocity: (1091.59, 0) m/s. Magnitude: 1091.59 m/s (2121.88 KTS).
Free-stream total energy per unit mass: 2.72361e+06 m^2/s^2.
-- Reference values:
Reference specific gas constant: 1 N.m/kg.K.
Reference pressure: 1 Pa.
Reference temperature: 1 K.
Reference density: 1 kg/m^3.
Reference velocity: 1 m/s.
Reference energy per unit mass: 1 m^2/s^2.
-- Resulting non-dimensional state:
Mach number (non-dim): 1
Specific gas constant (non-dim): 287.058
Free-stream temperature (non-dim): 2965
Free-stream pressure (non-dim): 3.69797e+06
Free-stream density (non-dim): 4.3448
Free-stream velocity (non-dim): (1091.59, 0). Magnitude: 1091.59
Free-stream total energy per unit mass (non-dim): 2.72361e+06

Initialize Jacobian structure (Euler). MG level: 0.
Initialize Jacobian structure (Euler). MG level: 1.
Initialize Jacobian structure (Euler). MG level: 2.
Initialize Jacobian structure (Euler). MG level: 3.

----------------- Integration and Numerics Preprocessing ----------------
Integration Preprocessing.
Numerics Preprocessing.

------------------------------ Begin Solver -----------------------------

------------------------ Evaluate Special Output ------------------------
Writing the forces breakdown file (forces_breakdown.dat).
-------------------------------------------------------------------------


---------------------- Local Time Stepping Summary ----------------------
MG level: 0 -> Min. DT: 1.32257e-05. Max. DT: 3.14658e-05. CFL: 4.
MG level: 1 -> Min. DT: 1.17717e-05. Max. DT: 5.25854e-05. CFL: 3.25738.
MG level: 2 -> Min. DT: 9.38261e-06. Max. DT: 8.44618e-05. CFL: 2.61477.
MG level: 3 -> Min. DT: 7.623e-06. Max. DT: 0.000122521. CFL: 2.12205.
-------------------------------------------------------------------------

----------------------- Residual Evolution Summary ----------------------
log10[Maximum residual]: 1.91141.
Maximum residual point 50, located at (1.30377, 1.49457).
-------------------------------------------------------------------------

 Iter    Time(s)     Res[Rho]     Res[RhoE]      CL(Total)      CD(Total)
    0   0.149224     0.811079      7.364323      -2.721166       0.724998
    1   0.145031     0.933161      7.475583      -3.193543       0.841610
    2   0.142878     0.864533      7.383319      -2.974202       0.776370
    3   0.142807     0.692905      7.201051      -2.885135       0.748030
    4   0.141645     0.277385      6.772574      -3.185318       0.826146
    5   0.141979     0.206091      6.734165      -3.650465       0.948484
    6   0.143513     0.316987      6.843534      -4.017400       1.036290
    7   0.143800     0.192044      6.717231      -4.226939       1.079554
    8   0.143416     0.053444      6.572225      -4.501941       1.130834
    9   0.143513    -0.069275      6.438520      -4.905334       1.202902
   10   0.143598    -0.146202      6.345828      -5.426227       1.292099
   11   0.143663    -0.186370      6.291551      -6.000322       1.387743
   12   0.143947    -0.216758      6.245580      -6.550728       1.478772
   13   0.144566    -0.238190      6.202534      -7.030777       1.559802
   14   0.144777    -0.260232      6.149986      -7.421381       1.629452
   15   0.144925    -0.274872      6.107660      -7.731032       1.689070
   16   0.145236    -0.267233      6.096311      -7.980535       1.740556
   17   0.145198    -0.249222      6.107974      -8.186567       1.784017
   18   0.145238    -0.230464      6.122712      -8.364159       1.820510
   19   0.145365    -0.206480      6.141679      -8.523947       1.851417
   20   0.145294    -0.179797      6.165001      -8.668753       1.877619
   21   0.145476    -0.149243      6.190339      -8.797956       1.899393
   22   0.145129    -0.113635      6.221689      -8.911465       1.917485
   23   0.144552    -0.092129      6.241999      -9.009527       1.932159
   24   0.144350    -0.069507      6.262371      -9.100318       1.945201
   25   0.144028    -0.030184      6.300564      -9.183711       1.956605
   26   0.143679     0.008534      6.343551      -9.256312       1.966201
   27   0.143335     0.047873      6.388837      -9.319808       1.974293
   28   0.142942     0.087875      6.435808      -9.375527       1.981203
   29   0.142850     0.123966      6.466056      -9.430088       1.987769
   30   0.142682     0.151695      6.499470      -9.484975       1.994206
   31   0.142315     0.187008      6.522480      -9.539711       2.000475
   32   0.142078     0.221093      6.558571      -9.593532       2.006490
   33   0.141906     0.242046      6.576546      -9.646145       2.012231
   34   0.141660     0.268876      6.604484      -9.696909       2.017624
   35   0.141507     0.294922      6.631793      -9.745796       2.022702
   36   0.141376     0.317514      6.657648      -9.792324       2.027457
   37   0.141183     0.337551      6.681352      -9.834824       2.031762
   38   0.140957     0.352926      6.687149      -9.871772       2.035437
   39   0.140694     0.356510      6.699126      -9.904279       2.038588

---------------------- Local Time Stepping Summary ----------------------
MG level: 0 -> Min. DT: 3.29972e-06. Max. DT: 9.14414e-06. CFL: 1.001.
MG level: 1 -> Min. DT: 2.8378e-06. Max. DT: 1.47713e-05. CFL: 0.815158.
MG level: 2 -> Min. DT: 2.2759e-06. Max. DT: 2.30825e-05. CFL: 0.654346.
MG level: 3 -> Min. DT: 1.85e-06. Max. DT: 3.33378e-05. CFL: 0.531044.
-------------------------------------------------------------------------

----------------------- Residual Evolution Summary ----------------------
log10[Maximum residual]: 1.57024.
Maximum residual point 10113, located at (6.77513, 0.0432027).
There are 31 non-physical points in the solution.
-------------------------------------------------------------------------

 Iter    Time(s)     Res[Rho]     Res[RhoE]      CL(Total)      CD(Total)
   40   0.140488     0.370326      6.716410      -9.934763       2.041419
   41   0.140220     0.403992      6.745569      -9.967336       2.044314
   42   0.139999     0.388671      6.742194     -10.003379       2.047399
   43   0.139900     0.402937      6.760731     -10.042883       2.050705
   44   0.139923     0.383228      6.751692     -10.081342       2.053826
   45   0.139731     0.389528      6.754318     -10.120104       2.056895
   46   0.139688     0.398654      6.764432     -10.157446       2.059796
   47   0.139576     0.377692      6.736472     -10.193753       2.062587
   48   0.139443     0.411324      6.766769     -10.226824       2.065057
   49   0.139297     0.419047      6.776416     -10.255413       2.067181
   50   0.139190     0.405304      6.769096     -10.282204       2.069195
   51   0.139086     0.419602      6.777013     -10.308694       2.071233
   52   0.138929     0.439913      6.803896     -10.332795       2.073047
   53   0.138847     0.448384      6.808188     -10.357299       2.074829
   54   0.138849     0.445822      6.814670     -10.384650       2.076753
   55   0.138856     0.449185      6.820391     -10.415744       2.078850
   56   0.138815     0.451860      6.815398     -10.449542       2.081058
   57   0.138656     0.479533      6.841556     -10.482986       2.083195
   58   0.138599     0.491252      6.859632     -10.514825       2.085161
   59   0.138592     0.456917      6.833703     -10.546686       2.087107
   60   0.138540     0.473215      6.848972     -10.578812       2.089046
   61   0.138561     0.493474      6.873633     -10.606228       2.090700
   62   0.138446     0.491864      6.876122     -10.632262       2.092280
   63   0.138356     0.483245      6.871014     -10.658966       2.093905
   64   0.138288     0.504893      6.894592     -10.687222       2.095648
   65   0.138247     0.504972      6.888983     -10.714433       2.097338
   66   0.138247     0.524078      6.912524     -10.740194       2.098928
   67   0.138271     0.504230      6.897212     -10.765260       2.100465
   68   0.138246     0.500460      6.888513     -10.792323       2.102113
   69   0.138250     0.507639      6.899630     -10.817624       2.103685
   70   0.138189     0.505199      6.896403     -10.842316       2.105233
   71   0.138124     0.501231      6.879560     -10.869251       2.106896
   72   0.138026     0.527006      6.900790     -10.897116       2.108587
   73   0.138058     0.537564      6.918009     -10.923178       2.110201
   74   0.138063     0.529694      6.914208     -10.948017       2.111688
   75   0.138027     0.535014      6.922180     -10.973065       2.113103
   76   0.137960     0.541409      6.923564     -10.996849       2.114368
   77   0.137841     0.564971      6.944530     -11.020168       2.115557
   78   0.137854     0.556421      6.940706     -11.042295       2.116619
   79   0.137797     0.546074      6.931333     -11.063980       2.117634

---------------------- Local Time Stepping Summary ----------------------
MG level: 0 -> Min. DT: 3.37283e-06. Max. DT: 1.03613e-05. CFL: 1.02302.
MG level: 1 -> Min. DT: 2.90105e-06. Max. DT: 1.64856e-05. CFL: 0.833087.
MG level: 2 -> Min. DT: 2.32663e-06. Max. DT: 2.44033e-05. CFL: 0.668738.
MG level: 3 -> Min. DT: 1.89107e-06. Max. DT: 3.18353e-05. CFL: 0.542724.
-------------------------------------------------------------------------

----------------------- Residual Evolution Summary ----------------------
log10[Maximum residual]: 1.90712.
Maximum residual point 9762, located at (8.40542, 1.25674).
There are 32 non-physical points in the solution.
-------------------------------------------------------------------------

 Iter    Time(s)     Res[Rho]     Res[RhoE]      CL(Total)      CD(Total)
   80   0.137717     0.562715      6.940612     -11.086184       2.118646
   81   0.137716     0.562916      6.945726     -11.108202       2.119616
   82   0.137631     0.562452      6.949674     -11.129339       2.120564
   83   0.137623     0.579706      6.962567     -11.151217       2.121542
   84   0.137545     0.568781      6.958523     -11.176128       2.122663
   85   0.137547     0.540954      6.929100     -11.200201       2.123756
   86   0.137473     0.549233      6.941081     -11.223446       2.124817
   87   0.137407     0.549829      6.932023     -11.244309       2.125749
   88   0.137345     0.568332      6.939214     -11.265867       2.126665
   89   0.137286     0.560390      6.936478     -11.287768       2.127550
   90   0.137187     0.552484      6.925571     -11.312914       2.128524
   91   0.137131     0.565919      6.949163     -11.338452       2.129483
   92   0.137142     0.551250      6.949739     -11.363050       2.130398
   93   0.137127     0.515657      6.926674     -11.388260       2.131384
   94   0.137115     0.529086      6.928482     -11.415026       2.132395
   95   0.137096     0.565447      6.968197     -11.437692       2.133249
   96   0.136996     0.563930      6.964189     -11.461356       2.134135
   97   0.136975     0.567578      6.962727     -11.485359       2.134981
   98   0.136913     0.562660      6.961489     -11.511265       2.135841
   99   0.136895     0.566347      6.971072     -11.535309       2.136591
  100   0.136838     0.581092      6.978948     -11.560315       2.137319
  101   0.136780     0.566145      6.974366     -11.585701       2.138044
  102   0.136752     0.584084      7.002028     -11.611841       2.138780
  103   0.136930     0.586169      6.998417     -11.636520       2.139489
  104   0.136994     0.574602      6.996699     -11.658699       2.140099
  105   0.137153     0.605824      7.027343     -11.682261       2.140727
  106   0.137277     0.563534      6.989162     -11.705618       2.141341
  107   0.137376     0.553198      6.980638     -11.729238       2.141956
  108   0.137452     0.570622      6.996800     -11.751376       2.142498
  109   0.137632     0.554272      6.986743     -11.771673       2.142975
  110   0.137731     0.560021      6.997705     -11.791709       2.143403
  111   0.137777     0.550615      6.993891     -11.813007       2.143849
  112   0.137852     0.563507      7.011672     -11.836156       2.144320
  113   0.137947     0.571631      7.018870     -11.856761       2.144713
  114   0.138021     0.561784      7.006434     -11.876938       2.145054
  115   0.138046     0.553633      6.986342     -11.897841       2.145385
  116   0.138087     0.562421      6.993916     -11.920232       2.145704
  117   0.138152     0.545751      6.983175     -11.943495       2.146027
  118   0.138240     0.542633      6.982605     -11.967227       2.146347
  119   0.138317     0.554755      6.986468     -11.990218       2.146664

---------------------- Local Time Stepping Summary ----------------------
MG level: 0 -> Min. DT: 3.30026e-06. Max. DT: 1.07254e-05. CFL: 1.001.
MG level: 1 -> Min. DT: 2.83878e-06. Max. DT: 1.68733e-05. CFL: 0.815158.
MG level: 2 -> Min. DT: 2.27671e-06. Max. DT: 2.01855e-05. CFL: 0.654346.
MG level: 3 -> Min. DT: 1.85041e-06. Max. DT: 2.99235e-05. CFL: 0.531044.
-------------------------------------------------------------------------

----------------------- Residual Evolution Summary ----------------------
log10[Maximum residual]: 1.92618.
Maximum residual point 1850, located at (9.61262, 0.461885).
There are 20 non-physical points in the solution.
-------------------------------------------------------------------------

 Iter    Time(s)     Res[Rho]     Res[RhoE]      CL(Total)      CD(Total)
  120   0.138380     0.547547      6.977584     -12.007381       2.146911
  121   0.138360     0.545041      6.986327     -12.023711       2.147216
  122   0.138397     0.535662      6.976966     -12.041499       2.147651
  123   0.138371     0.546173      6.981231     -12.056380       2.148145
  124   0.138337     0.551574      6.988804     -12.070956       2.148717
  125   0.138329     0.540761      6.983752     -12.084902       2.149336
  126   0.138382     0.512980      6.962241     -12.100752       2.150010
  127   0.138417     0.532796      6.978454     -12.122409       2.150834
  128   0.138385     0.545330      6.988082     -12.147936       2.151605
  129   0.138356     0.532624      6.978995     -12.179393       2.152292
  130   0.138353     0.523237      6.969937     -12.215585       2.152885
  131   0.138328     0.523915      6.962031     -12.252529       2.153365
  132   0.138288     0.534827      6.972236     -12.289749       2.153739
  133   0.138291     0.535750      6.971967     -12.323288       2.154048
  134   0.138239     0.517521      6.963787     -12.355300       2.154312
  135   0.138229     0.521654      6.964420     -12.376234       2.154455
  136   0.138238     0.522776      6.973748     -12.398206       2.154620
  137   0.138248     0.527655      6.977764     -12.424507       2.154858
  138   0.138243     0.518932      6.970358     -12.453578       2.155136
  139   0.138180     0.507431      6.963046     -12.484148       2.155450
  140   0.138118     0.490721      6.953707     -12.512408       2.155739
  141   0.138077     0.480961      6.948925     -12.537165       2.155988
  142   0.138133     0.463709      6.938800     -12.558001       2.156187
  143   0.138176     0.444074      6.921972     -12.574872       2.156360
  144   0.138234     0.414747      6.896834     -12.586938       2.156476
  145   0.138217     0.369170      6.858411     -12.594152       2.156552
  146   0.138175     0.313717      6.809679     -12.597810       2.156581
  147   0.138142     0.256496      6.760614     -12.599034       2.156606
  148   0.138117     0.212127      6.723707     -12.598737       2.156595
  149   0.138083     0.170764      6.685232     -12.597752       2.156593
  150   0.138080     0.110855      6.633581     -12.596174       2.156566
  151   0.138064     0.033905      6.563589     -12.594948       2.156559
  152   0.138059    -0.043479      6.488607     -12.594066       2.156553
  153   0.138045    -0.142383      6.394260     -12.593664       2.156541
  154   0.138062    -0.246422      6.295255     -12.593741       2.156565
  155   0.138053    -0.366969      6.176391     -12.593907       2.156527
  156   0.138111    -0.511218      6.032094     -12.594368       2.156564
  157   0.138189    -0.669154      5.871658     -12.594700       2.156534
  158   0.138280    -0.814473      5.729754     -12.595031       2.156557
  159   0.138414    -0.816076      5.744860     -12.595161       2.156552

---------------------- Local Time Stepping Summary ----------------------
MG level: 0 -> Min. DT: 1.2737e-05. Max. DT: 3.67614e-05. CFL: 4.70218.
MG level: 1 -> Min. DT: 1.23733e-05. Max. DT: 5.6597e-05. CFL: 3.82919.
MG level: 2 -> Min. DT: 9.93653e-06. Max. DT: 9.18704e-05. CFL: 3.07378.
MG level: 3 -> Min. DT: 8.06777e-06. Max. DT: 0.000139908. CFL: 2.49457.
-------------------------------------------------------------------------

----------------------- Residual Evolution Summary ----------------------
log10[Maximum residual]: 1.11866.
Maximum residual point 527, located at (0, 0.85).
-------------------------------------------------------------------------

 Iter    Time(s)     Res[Rho]     Res[RhoE]      CL(Total)      CD(Total)
  160   0.138497    -0.662600      5.906970     -12.595146       2.156546
  161   0.138546    -0.590209      5.983954     -12.594824       2.156423
  162   0.138548    -0.834595      5.740078     -12.595465       2.156666
  163   0.138601    -1.087603      5.479860     -12.595249       2.156578
  164   0.138686    -1.115897      5.460874     -12.595280       2.156609
  165   0.138847    -1.015018      5.555056     -12.595152       2.156566
  166   0.138932    -0.887890      5.684238     -12.595222       2.156610
  167   0.139018    -0.876419      5.698849     -12.594761       2.156433
  168   0.139016    -1.235467      5.345947     -12.595101       2.156563
  169   0.139128    -1.468764      5.095680     -12.594992       2.156537
  170   0.139245    -1.457547      5.112007     -12.595097       2.156583
  171   0.139337    -1.365653      5.208739     -12.594970       2.156543
  172   0.139408    -1.289183      5.285603     -12.595079       2.156585
  173   0.139411    -1.365449      5.215871     -12.594912       2.156517
  174   0.139370    -1.453348      5.120250     -12.595026       2.156561
  175   0.139410    -1.459797      5.114534     -12.594868       2.156503
  176   0.139422    -1.416464      5.153095     -12.594998       2.156548
  177   0.139385    -1.403085      5.164442     -12.594829       2.156479
  178   0.139366    -1.373345      5.178605     -12.594938       2.156526
  179   0.139380    -1.405240      5.145855     -12.594868       2.156497
  180   0.139348    -1.443077      5.104733     -12.594960       2.156539
  181   0.139324    -1.451440      5.104189     -12.594886       2.156512
  182   0.139297    -1.479048      5.081072     -12.595003       2.156558
  183   0.139236    -1.506629      5.052047     -12.594913       2.156522
  184   0.139199    -1.506787      5.057477     -12.595016       2.156557
  185   0.139168    -1.485833      5.084442     -12.594900       2.156505
  186   0.139120    -1.462443      5.105497     -12.594998       2.156539
  187   0.139081    -1.476160      5.091143     -12.594945       2.156504
  188   0.139065    -1.500945      5.061703     -12.595049       2.156544
  189   0.139040    -1.487685      5.075267     -12.595007       2.156513
  190   0.139004    -1.488148      5.072406     -12.595113       2.156541
  191   0.138972    -1.500167      5.062552     -12.595029       2.156507
  192   0.138952    -1.512473      5.052149     -12.595188       2.156551
  193   0.138928    -1.528092      5.037527     -12.595113       2.156513
  194   0.138911    -1.519399      5.046559     -12.595190       2.156541
  195   0.138885    -1.486409      5.081133     -12.595177       2.156523
  196   0.138844    -1.504406      5.063343     -12.595288       2.156559
  197   0.138800    -1.537181      5.021371     -12.595265       2.156555
  198   0.138748    -1.553212      5.010270     -12.595372       2.156589
  199   0.138737    -1.550756      5.010246     -12.595390       2.156583

---------------------- Local Time Stepping Summary ----------------------
MG level: 0 -> Min. DT: 4.35402e-06. Max. DT: 1.25773e-05. CFL: 1.60887.
MG level: 1 -> Min. DT: 4.2323e-06. Max. DT: 1.93633e-05. CFL: 1.31017.
MG level: 2 -> Min. DT: 3.39864e-06. Max. DT: 3.1434e-05. CFL: 1.0517.
MG level: 3 -> Min. DT: 2.75943e-06. Max. DT: 4.78702e-05. CFL: 0.853525.
-------------------------------------------------------------------------

----------------------- Residual Evolution Summary ----------------------
log10[Maximum residual]: -0.138411.
Maximum residual point 672, located at (0.0432138, 0.874781).
-------------------------------------------------------------------------

 Iter    Time(s)     Res[Rho]     Res[RhoE]      CL(Total)      CD(Total)
  200   0.138718    -1.560212      5.005056     -12.595421       2.156604
  201   0.138692    -1.553014      5.015344     -12.595386       2.156581
  202   0.138684    -1.525313      5.045414     -12.595486       2.156617
  203   0.138650    -1.541352      5.030678     -12.595396       2.156590
  204   0.138597    -1.582204      4.984851     -12.595469       2.156613
  205   0.138570    -1.576677      4.993112     -12.595409       2.156592
  206   0.138534    -1.553632      5.017195     -12.595413       2.156607
  207   0.138497    -1.562724      5.007591     -12.595366       2.156586
  208   0.138495    -1.573508      4.996429     -12.595440       2.156608
  209   0.138471    -1.594304      4.974862     -12.595345       2.156582
  210   0.138469    -1.576330      4.992904     -12.595394       2.156604
  211   0.138466    -1.592835      4.978057     -12.595356       2.156589
  212   0.138483    -1.569421      4.998126     -12.595369       2.156602
  213   0.138504    -1.586512      4.984031     -12.595364       2.156600
  214   0.138478    -1.587844      4.983121     -12.595372       2.156606
  215   0.138442    -1.613682      4.956714     -12.595322       2.156594
  216   0.138406    -1.606346      4.961329     -12.595372       2.156610
  217   0.138379    -1.594730      4.973111     -12.595372       2.156607
  218   0.138346    -1.623740      4.943836     -12.595414       2.156624
  219   0.138311    -1.628335      4.944090     -12.595354       2.156611
  220   0.138274    -1.608133      4.962019     -12.595386       2.156621
  221   0.138239    -1.632003      4.939418     -12.595355       2.156610
  222   0.138211    -1.619678      4.948626     -12.595369       2.156621
  223   0.138193    -1.590497      4.978830     -12.595366       2.156622
  224   0.138226    -1.622050      4.951095     -12.595348       2.156619
  225   0.138225    -1.648246      4.921274     -12.595316       2.156610
  226   0.138223    -1.620726      4.947571     -12.595333       2.156615
  227   0.138200    -1.649389      4.922044     -12.595304       2.156609
  228   0.138192    -1.672127      4.897089     -12.595285       2.156603
  229   0.138177    -1.656957      4.910709     -12.595271       2.156599
  230   0.138155    -1.642056      4.925177     -12.595290       2.156608
  231   0.138127    -1.697617      4.867639     -12.595261       2.156601
  232   0.138105    -1.691842      4.872824     -12.595270       2.156604
  233   0.138073    -1.653132      4.914272     -12.595250       2.156600
  234   0.138044    -1.631884      4.935327     -12.595272       2.156607
  235   0.138010    -1.663424      4.903432     -12.595274       2.156608
  236   0.137994    -1.660062      4.904579     -12.595280       2.156610
  237   0.137973    -1.644239      4.924556     -12.595265       2.156603
  238   0.137961    -1.650550      4.918706     -12.595287       2.156606
  239   0.137919    -1.677048      4.891532     -12.595293       2.156605

---------------------- Local Time Stepping Summary ----------------------
MG level: 0 -> Min. DT: 2.81317e-06. Max. DT: 8.12668e-06. CFL: 1.03953.
MG level: 1 -> Min. DT: 2.73464e-06. Max. DT: 1.25117e-05. CFL: 0.846539.
MG level: 2 -> Min. DT: 2.19597e-06. Max. DT: 2.03105e-05. CFL: 0.679536.
MG level: 3 -> Min. DT: 1.78296e-06. Max. DT: 3.09302e-05. CFL: 0.551487.
-------------------------------------------------------------------------

----------------------- Residual Evolution Summary ----------------------
log10[Maximum residual]: -0.220576.
Maximum residual point 493, located at (0.900041, 0).
-------------------------------------------------------------------------

 Iter    Time(s)     Res[Rho]     Res[RhoE]      CL(Total)      CD(Total)
  240   0.137902    -1.685805      4.883345     -12.595333       2.156619
  241   0.137887    -1.674790      4.889880     -12.595326       2.156618
  242   0.137879    -1.630685      4.935853     -12.595349       2.156623
  243   0.137851    -1.645291      4.921641     -12.595335       2.156618
  244   0.137828    -1.678549      4.887056     -12.595345       2.156621
  245   0.137810    -1.681869      4.888800     -12.595331       2.156617
  246   0.137801    -1.624514      4.946458     -12.595351       2.156623
  247   0.137756    -1.626344      4.944689     -12.595359       2.156626
  248   0.137717    -1.632966      4.934939     -12.595341       2.156625
  249   0.137726    -1.671963      4.897499     -12.595312       2.156619

------------------------ Evaluate Special Output ------------------------
Writing the forces breakdown file (forces_breakdown.dat).
-------------------------------------------------------------------------

  250   0.137716    -1.664309      4.904856     -12.595313       2.156622

-------------------------- File Output Summary --------------------------
Writing comma-separated values (CSV) surface files.
Loading solution output data locally on each rank.
Sorting output data across all ranks.
Writing binary SU2 native restart file.
Preparing element connectivity across all ranks.
Writing Paraview ASCII volume solution file.
Writing Paraview ASCII surface solution file.
-------------------------------------------------------------------------

  251   0.138167    -1.651713      4.916721     -12.595299       2.156619
  252   0.138141    -1.646038      4.922074     -12.595291       2.156620
  253   0.138109    -1.657092      4.911425     -12.595268       2.156617
  254   0.138080    -1.646442      4.921811     -12.595283       2.156624
  255   0.138071    -1.642178      4.927299     -12.595255       2.156620
  256   0.138039    -1.647725      4.918480     -12.595263       2.156620
  257   0.138001    -1.617702      4.950227     -12.595278       2.156626
  258   0.137971    -1.650957      4.914421     -12.595323       2.156638
  259   0.137955    -1.634422      4.927092     -12.595321       2.156639
  260   0.137931    -1.593371      4.968090     -12.595314       2.156638
  261   0.137899    -1.583577      4.973579     -12.595298       2.156637
  262   0.137866    -1.592801      4.960190     -12.595315       2.156642
  263   0.137830    -1.608999      4.941375     -12.595313       2.156639
  264   0.137816    -1.605062      4.947914     -12.595298       2.156636
  265   0.137766    -1.640617      4.911533     -12.595238       2.156618
  266   0.137733    -1.609105      4.947446     -12.595227       2.156613
  267   0.137712    -1.640590      4.919505     -12.595207       2.156609
  268   0.137693    -1.647217      4.911407     -12.595216       2.156610
  269   0.137667    -1.641253      4.923341     -12.595229       2.156610
  270   0.137625    -1.659834      4.904994     -12.595244       2.156612
  271   0.137611    -1.653524      4.908205     -12.595275       2.156617
  272   0.137598    -1.636017      4.926094     -12.595295       2.156625
  273   0.137575    -1.607525      4.954770     -12.595298       2.156627
  274   0.137558    -1.646071      4.913849     -12.595290       2.156622
  275   0.137537    -1.614263      4.944532     -12.595239       2.156609
  276   0.137492    -1.591970      4.968437     -12.595193       2.156594
  277   0.137463    -1.576056      4.979716     -12.595156       2.156580
  278   0.137434    -1.552537      4.989557     -12.595149       2.156576
  279   0.137418    -1.519639      5.019290     -12.595139       2.156573

---------------------- Local Time Stepping Summary ----------------------
MG level: 0 -> Min. DT: 2.70887e-06. Max. DT: 7.82572e-06. CFL: 1.001.
MG level: 1 -> Min. DT: 2.63322e-06. Max. DT: 1.20473e-05. CFL: 0.815158.
MG level: 2 -> Min. DT: 2.11454e-06. Max. DT: 1.95577e-05. CFL: 0.654346.
MG level: 3 -> Min. DT: 1.71686e-06. Max. DT: 2.97831e-05. CFL: 0.531044.
-------------------------------------------------------------------------

----------------------- Residual Evolution Summary ----------------------
log10[Maximum residual]: 0.320067.
Maximum residual point 24, located at (0.0870938, 1.03365).
-------------------------------------------------------------------------

 Iter    Time(s)     Res[Rho]     Res[RhoE]      CL(Total)      CD(Total)
  280   0.137420    -1.498717      5.038672     -12.595131       2.156574
  281   0.137398    -1.508021      5.027266     -12.595132       2.156578
  282   0.137406    -1.517832      5.019181     -12.595153       2.156588
  283   0.137381    -1.539655      4.996847     -12.595158       2.156592
  284   0.137365    -1.555609      4.982128     -12.595173       2.156601
  285   0.137364    -1.563445      4.979000     -12.595188       2.156606
  286   0.137355    -1.584585      4.961199     -12.595204       2.156613
  287   0.137344    -1.590043      4.954633     -12.595209       2.156617
  288   0.137326    -1.603372      4.945087     -12.595213       2.156618
  289   0.137307    -1.569592      4.982763     -12.595195       2.156612
  290   0.137298    -1.597717      4.957391     -12.595187       2.156611
  291   0.137288    -1.589716      4.968541     -12.595189       2.156613
  292   0.137267    -1.565425      4.991863     -12.595203       2.156617
  293   0.137246    -1.571130      4.986537     -12.595199       2.156615
  294   0.137233    -1.530070      5.023027     -12.595214       2.156616
  295   0.137210    -1.510702      5.039338     -12.595233       2.156619
  296   0.137205    -1.482052      5.062421     -12.595255       2.156625
  297   0.137187    -1.474646      5.064780     -12.595288       2.156632
  298   0.137160    -1.467951      5.068943     -12.595299       2.156630
  299   0.137149    -1.486809      5.050024     -12.595266       2.156613
  300   0.137142    -1.516904      5.021767     -12.595225       2.156595
  301   0.137135    -1.542671      4.997104     -12.595209       2.156584
  302   0.137114    -1.568797      4.975072     -12.595207       2.156584
  303   0.137096    -1.595434      4.948650     -12.595198       2.156585
  304   0.137096    -1.592495      4.959956     -12.595226       2.156594
  305   0.137099    -1.623509      4.935619     -12.595250       2.156601
  306   0.137083    -1.653619      4.903970     -12.595288       2.156606
  307   0.137076    -1.596909      4.961972     -12.595286       2.156600
  308   0.137046    -1.565118      4.995321     -12.595292       2.156600
  309   0.137038    -1.596866      4.959156     -12.595318       2.156603
  310   0.137019    -1.562311      4.989177     -12.595353       2.156614
  311   0.137019    -1.536561      5.014052     -12.595349       2.156612
  312   0.137027    -1.530403      5.004159     -12.595358       2.156609
  313   0.137002    -1.516029      5.018615     -12.595371       2.156605
  314   0.136983    -1.508768      5.024586     -12.595399       2.156610
  315   0.136962    -1.519685      5.017109     -12.595381       2.156607
  316   0.136951    -1.546118      4.989639     -12.595398       2.156612
  317   0.136927    -1.566806      4.973458     -12.595403       2.156613
  318   0.136917    -1.572512      4.971344     -12.595431       2.156621
  319   0.136915    -1.597295      4.948347     -12.595428       2.156623

---------------------- Local Time Stepping Summary ----------------------
MG level: 0 -> Min. DT: 2.99955e-06. Max. DT: 8.6654e-06. CFL: 1.1084.
MG level: 1 -> Min. DT: 2.91588e-06. Max. DT: 1.33394e-05. CFL: 0.902621.
MG level: 2 -> Min. DT: 2.34152e-06. Max. DT: 2.16581e-05. CFL: 0.724554.
MG level: 3 -> Min. DT: 1.90115e-06. Max. DT: 3.29789e-05. CFL: 0.588022.
-------------------------------------------------------------------------

----------------------- Residual Evolution Summary ----------------------
log10[Maximum residual]: -0.0924855.
Maximum residual point 26, located at (0.174188, 1.0673).
-------------------------------------------------------------------------

 Iter    Time(s)     Res[Rho]     Res[RhoE]      CL(Total)      CD(Total)
  320   0.136908    -1.592380      4.958993     -12.595404       2.156625
  321   0.136895    -1.593461      4.958393     -12.595381       2.156623
  322   0.136893    -1.603688      4.949160     -12.595376       2.156623
  323   0.136894    -1.598095      4.954742     -12.595364       2.156625
  324   0.136873    -1.595137      4.962800     -12.595337       2.156619
  325   0.136850    -1.630763      4.928917     -12.595337       2.156620
  326   0.136832    -1.655657      4.905387     -12.595338       2.156618
  327   0.136815    -1.603978      4.956532     -12.595328       2.156616
  328   0.136825    -1.589125      4.970392     -12.595306       2.156609
  329   0.136818    -1.592763      4.963205     -12.595310       2.156613
  330   0.136805    -1.585734      4.969840     -12.595315       2.156618
  331   0.136802    -1.592403      4.956321     -12.595332       2.156622
  332   0.136860    -1.584403      4.967917     -12.595333       2.156622
  333   0.136854    -1.562173      4.988398     -12.595323       2.156622
  334   0.136840    -1.563411      4.986587     -12.595331       2.156621
  335   0.136827    -1.578722      4.967306     -12.595339       2.156621
  336   0.136883    -1.557816      4.987785     -12.595330       2.156615
  337   0.136888    -1.557020      4.991716     -12.595338       2.156614
  338   0.136888    -1.573490      4.975145     -12.595395       2.156629
  339   0.136871    -1.594608      4.950044     -12.595393       2.156627
  340   0.136855    -1.610612      4.936618     -12.595376       2.156622
  341   0.136856    -1.629467      4.919726     -12.595372       2.156619
  342   0.136860    -1.608136      4.945857     -12.595391       2.156624
  343   0.136848    -1.613470      4.941999     -12.595391       2.156621
  344   0.136822    -1.602657      4.957769     -12.595412       2.156625
  345   0.136814    -1.623534      4.936526     -12.595388       2.156623
  346   0.136803    -1.622834      4.937483     -12.595398       2.156627
  347   0.136778    -1.606954      4.953656     -12.595408       2.156625
  348   0.136749    -1.655922      4.900831     -12.595429       2.156633
  349   0.136723    -1.649049      4.905879     -12.595441       2.156637
  350   0.136690    -1.614726      4.941135     -12.595422       2.156633
  351   0.136676    -1.636168      4.920064     -12.595379       2.156625
  352   0.136658    -1.616859      4.936991     -12.595368       2.156619
  353   0.136644    -1.594333      4.961608     -12.595357       2.156610
  354   0.136616    -1.590127      4.964064     -12.595335       2.156605
  355   0.136599    -1.574179      4.978442     -12.595292       2.156590
  356   0.136589    -1.520136      5.021736     -12.595262       2.156582
  357   0.136583    -1.518895      5.021149     -12.595228       2.156577
  358   0.136569    -1.530044      5.005618     -12.595263       2.156590
  359   0.136555    -1.548479      4.986520     -12.595279       2.156597

---------------------- Local Time Stepping Summary ----------------------
MG level: 0 -> Min. DT: 2.80276e-06. Max. DT: 8.09685e-06. CFL: 1.03568.
MG level: 1 -> Min. DT: 2.72455e-06. Max. DT: 1.24645e-05. CFL: 0.843401.
MG level: 2 -> Min. DT: 2.18789e-06. Max. DT: 2.02357e-05. CFL: 0.677017.
MG level: 3 -> Min. DT: 1.7764e-06. Max. DT: 3.08155e-05. CFL: 0.549443.
-------------------------------------------------------------------------

----------------------- Residual Evolution Summary ----------------------
log10[Maximum residual]: 0.13384.
Maximum residual point 24, located at (0.0870938, 1.03365).
-------------------------------------------------------------------------

 Iter    Time(s)     Res[Rho]     Res[RhoE]      CL(Total)      CD(Total)
  360   0.136535    -1.559071      4.977559     -12.595297       2.156609
  361   0.136540    -1.563667      4.976519     -12.595345       2.156618
  362   0.136526    -1.566350      4.980094     -12.595357       2.156621
  363   0.136520    -1.581207      4.966116     -12.595330       2.156617
  364   0.136520    -1.602890      4.946613     -12.595331       2.156622
  365   0.136510    -1.617280      4.934802     -12.595315       2.156622
  366   0.136490    -1.610506      4.944175     -12.595287       2.156619
  367   0.136484    -1.564666      4.995192     -12.595270       2.156614
  368   0.136484    -1.612272      4.950684     -12.595256       2.156607
  369   0.136455    -1.611888      4.945518     -12.595261       2.156609
  370   0.136429    -1.597210      4.962294     -12.595292       2.156609
  371   0.136424    -1.572074      4.986067     -12.595304       2.156613
  372   0.136408    -1.561297      4.991813     -12.595313       2.156622
  373   0.136383    -1.560723      4.989000     -12.595329       2.156630
  374   0.136375    -1.547108      4.998251     -12.595343       2.156631
  375   0.136375    -1.521391      5.025798     -12.595325       2.156622
  376   0.136360    -1.503419      5.041046     -12.595332       2.156616
  377   0.136334    -1.519527      5.022513     -12.595356       2.156619
  378   0.136310    -1.539803      5.000146     -12.595370       2.156623
  379   0.136311    -1.534007      5.010646     -12.595376       2.156615
  380   0.136297    -1.573238      4.970956     -12.595362       2.156606
  381   0.136268    -1.594111      4.949306     -12.595347       2.156603
  382   0.136246    -1.612302      4.937719     -12.595387       2.156614
  383   0.136228    -1.639904      4.912767     -12.595399       2.156617
  384   0.136221    -1.625292      4.932311     -12.595443       2.156628
  385   0.136194    -1.624828      4.934629     -12.595460       2.156627
  386   0.136171    -1.617918      4.942738     -12.595438       2.156623
  387   0.136148    -1.607565      4.954303     -12.595449       2.156623
  388   0.136152    -1.573503      4.985710     -12.595470       2.156627
  389   0.136185    -1.608185      4.946593     -12.595461       2.156626
  390   0.136196    -1.606992      4.944372     -12.595475       2.156630
  391   0.136179    -1.579492      4.973076     -12.595463       2.156626
  392   0.136194    -1.580476      4.970191     -12.595455       2.156623
  393   0.136185    -1.575940      4.960008     -12.595466       2.156624
  394   0.136164    -1.560840      4.981143     -12.595468       2.156621
  395   0.136141    -1.542827      4.992832     -12.595428       2.156613
  396   0.136121    -1.555168      4.980623     -12.595397       2.156610
  397   0.136101    -1.551359      4.987222     -12.595385       2.156607
  398   0.136090    -1.544331      4.998998     -12.595363       2.156609
  399   0.136066    -1.569964      4.971874     -12.595359       2.156614

---------------------- Local Time Stepping Summary ----------------------
MG level: 0 -> Min. DT: 2.79003e-06. Max. DT: 8.06005e-06. CFL: 1.03098.
MG level: 1 -> Min. DT: 2.71219e-06. Max. DT: 1.24078e-05. CFL: 0.839574.
MG level: 2 -> Min. DT: 2.17795e-06. Max. DT: 2.01433e-05. CFL: 0.673945.
MG level: 3 -> Min. DT: 1.76834e-06. Max. DT: 3.06756e-05. CFL: 0.546949.
-------------------------------------------------------------------------

----------------------- Residual Evolution Summary ----------------------
log10[Maximum residual]: -0.0620863.
Maximum residual point 24, located at (0.0870938, 1.03365).
-------------------------------------------------------------------------

 Iter    Time(s)     Res[Rho]     Res[RhoE]      CL(Total)      CD(Total)
  400   0.136051    -1.587022      4.956906     -12.595400       2.156625
  401   0.136044    -1.567731      4.980543     -12.595385       2.156625
  402   0.136023    -1.599973      4.947825     -12.595386       2.156630
  403   0.136007    -1.618155      4.926823     -12.595375       2.156629
  404   0.135995    -1.589156      4.965617     -12.595342       2.156627
  405   0.135991    -1.624807      4.931436     -12.595317       2.156628
  406   0.135981    -1.612224      4.946708     -12.595307       2.156624
  407   0.135974    -1.598295      4.961226     -12.595294       2.156617
  408   0.135957    -1.616582      4.942121     -12.595302       2.156622
  409   0.135939    -1.625651      4.932001     -12.595301       2.156621
  410   0.135916    -1.588169      4.967610     -12.595302       2.156625
  411   0.135900    -1.555869      4.998908     -12.595301       2.156624
  412   0.135876    -1.579958      4.971521     -12.595321       2.156629
  413   0.135867    -1.540317      5.013486     -12.595319       2.156627
  414   0.135865    -1.549345      4.998725     -12.595350       2.156637
  415   0.135843    -1.536459      5.009420     -12.595337       2.156630
  416   0.135824    -1.533313      5.011977     -12.595318       2.156625
  417   0.135809    -1.546343      4.997087     -12.595292       2.156619
  418   0.135794    -1.574291      4.966985     -12.595319       2.156623
  419   0.135779    -1.575910      4.964558     -12.595312       2.156614
  420   0.135762    -1.569834      4.979155     -12.595337       2.156612
  421   0.135756    -1.612568      4.936861     -12.595342       2.156612
  422   0.135740    -1.616153      4.936976     -12.595361       2.156619
  423   0.135729    -1.613868      4.944839     -12.595377       2.156621
  424   0.135711    -1.606995      4.952686     -12.595393       2.156627
  425   0.135710    -1.635082      4.924382     -12.595411       2.156629
  426   0.135690    -1.628019      4.930092     -12.595443       2.156634
  427   0.135672    -1.611639      4.949795     -12.595421       2.156626
  428   0.135651    -1.604935      4.954356     -12.595432       2.156632
  429   0.135634    -1.591825      4.966422     -12.595455       2.156639
  430   0.135614    -1.624405      4.930961     -12.595449       2.156635
  431   0.135593    -1.569881      4.985944     -12.595413       2.156628
  432   0.135573    -1.593884      4.959389     -12.595416       2.156626
  433   0.135554    -1.592888      4.957899     -12.595390       2.156614
  434   0.135532    -1.580256      4.959046     -12.595374       2.156610
  435   0.135512    -1.530597      5.015907     -12.595346       2.156605
  436   0.135495    -1.549660      4.987412     -12.595340       2.156601
  437   0.135472    -1.556862      4.977839     -12.595336       2.156599
  438   0.135452    -1.546951      4.990436     -12.595362       2.156610
  439   0.135433    -1.556367      4.984201     -12.595368       2.156616

---------------------- Local Time Stepping Summary ----------------------
MG level: 0 -> Min. DT: 2.73843e-06. Max. DT: 7.91092e-06. CFL: 1.01191.
MG level: 1 -> Min. DT: 2.662e-06. Max. DT: 1.21783e-05. CFL: 0.824043.
MG level: 2 -> Min. DT: 2.13765e-06. Max. DT: 1.97713e-05. CFL: 0.661478.
MG level: 3 -> Min. DT: 1.73561e-06. Max. DT: 3.01081e-05. CFL: 0.536832.
-------------------------------------------------------------------------

----------------------- Residual Evolution Summary ----------------------
log10[Maximum residual]: 0.000370577.
Maximum residual point 24, located at (0.0870938, 1.03365).
-------------------------------------------------------------------------

 Iter    Time(s)     Res[Rho]     Res[RhoE]      CL(Total)      CD(Total)
  440   0.135415    -1.559712      4.985442     -12.595381       2.156626
  441   0.135398    -1.596941      4.949547     -12.595393       2.156633
  442   0.135384    -1.599682      4.948673     -12.595384       2.156635
  443   0.135397    -1.566593      4.986287     -12.595360       2.156631
  444   0.135435    -1.618738      4.933315     -12.595349       2.156631
  445   0.135429    -1.627097      4.925751     -12.595321       2.156624
  446   0.135433    -1.610460      4.948148     -12.595333       2.156629
  447   0.135471    -1.606624      4.955779     -12.595325       2.156625
  448   0.135465    -1.605412      4.953664     -12.595331       2.156627
  449   0.135448    -1.583098      4.976587     -12.595298       2.156624
  450   0.135434    -1.589164      4.967795     -12.595319       2.156631
  451   0.135461    -1.590859      4.964537     -12.595324       2.156629
  452   0.135448    -1.560516      4.993018     -12.595317       2.156627
  453   0.135431    -1.549007      5.001170     -12.595335       2.156629
  454   0.135421    -1.534419      5.011038     -12.595371       2.156637
  455   0.135412    -1.514253      5.030814     -12.595344       2.156631
  456   0.135444    -1.541436      4.996763     -12.595372       2.156639
  457   0.135441    -1.548034      4.991254     -12.595337       2.156626
  458   0.135440    -1.531555      5.013275     -12.595317       2.156620
  459   0.135440    -1.569641      4.974221     -12.595305       2.156612
  460   0.135430    -1.604182      4.939111     -12.595320       2.156611
  461   0.135424    -1.600950      4.946755     -12.595320       2.156609
  462   0.135419    -1.603918      4.949367     -12.595357       2.156619
  463   0.135410    -1.611035      4.948332     -12.595363       2.156620
  464   0.135402    -1.621492      4.936184     -12.595362       2.156622
  465   0.135385    -1.596512      4.967028     -12.595387       2.156627
  466   0.135380    -1.635347      4.928541     -12.595389       2.156627
  467   0.135370    -1.622469      4.935558     -12.595387       2.156625
  468   0.135359    -1.585164      4.973216     -12.595430       2.156632
  469   0.135336    -1.596302      4.958493     -12.595440       2.156633
  470   0.135319    -1.567223      4.988554     -12.595421       2.156628
  471   0.135309    -1.615525      4.935864     -12.595409       2.156627
  472   0.135298    -1.589178      4.960515     -12.595399       2.156623
  473   0.135287    -1.544358      4.998101     -12.595390       2.156619
  474   0.135279    -1.551687      4.993314     -12.595389       2.156615
  475   0.135281    -1.571797      4.963653     -12.595392       2.156612
  476   0.135277    -1.545080      4.992822     -12.595374       2.156609
  477   0.135274    -1.542335      4.996484     -12.595363       2.156609
  478   0.135264    -1.556815      4.982050     -12.595388       2.156618
  479   0.135259    -1.561489      4.981858     -12.595394       2.156622

---------------------- Local Time Stepping Summary ----------------------
MG level: 0 -> Min. DT: 2.76929e-06. Max. DT: 8.00007e-06. CFL: 1.02332.
MG level: 1 -> Min. DT: 2.69202e-06. Max. DT: 1.23157e-05. CFL: 0.833333.
MG level: 2 -> Min. DT: 2.16176e-06. Max. DT: 1.99948e-05. CFL: 0.668935.
MG level: 3 -> Min. DT: 1.75519e-06. Max. DT: 3.04474e-05. CFL: 0.542884.
-------------------------------------------------------------------------

----------------------- Residual Evolution Summary ----------------------
log10[Maximum residual]: -0.0699762.
Maximum residual point 26, located at (0.174188, 1.0673).
-------------------------------------------------------------------------

 Iter    Time(s)     Res[Rho]     Res[RhoE]      CL(Total)      CD(Total)
  480   0.135248    -1.578571      4.966996     -12.595424       2.156635
  481   0.135236    -1.604515      4.942151     -12.595421       2.156637
  482   0.135220    -1.607121      4.942463     -12.595425       2.156640
  483   0.135203    -1.592767      4.958998     -12.595401       2.156638
  484   0.135199    -1.615033      4.936991     -12.595378       2.156635
  485   0.135195    -1.627140      4.928466     -12.595335       2.156630
  486   0.135197    -1.607148      4.952284     -12.595318       2.156628
  487   0.135178    -1.608669      4.950557     -12.595303       2.156624
  488   0.135157    -1.641517      4.916766     -12.595286       2.156624
  489   0.135149    -1.596876      4.960683     -12.595280       2.156626
  490   0.135135    -1.570489      4.986229     -12.595286       2.156630
  491   0.135122    -1.553281      5.002299     -12.595260       2.156625
  492   0.135110    -1.570009      4.981182     -12.595275       2.156629
  493   0.135093    -1.538478      5.011038     -12.595294       2.156632
  494   0.135081    -1.518954      5.028974     -12.595300       2.156633
  495   0.135064    -1.523657      5.021410     -12.595303       2.156633
  496   0.135052    -1.543484      4.998535     -12.595274       2.156624
  497   0.135035    -1.548091      4.993475     -12.595252       2.156617
  498   0.135022    -1.572033      4.970269     -12.595274       2.156616
  499   0.135023    -1.586318      4.961536     -12.595288       2.156612

------------------------ Evaluate Special Output ------------------------
Writing the forces breakdown file (forces_breakdown.dat).
-------------------------------------------------------------------------

  500   0.135054    -1.597739      4.951492     -12.595298       2.156610

-------------------------- File Output Summary --------------------------
Writing comma-separated values (CSV) surface files.
Loading solution output data locally on each rank.
Sorting output data across all ranks.
Writing binary SU2 native restart file.
Preparing element connectivity across all ranks.
Writing Paraview ASCII volume solution file.
Writing Paraview ASCII surface solution file.
-------------------------------------------------------------------------

  501   0.135293    -1.585718      4.967975     -12.595315       2.156610
  502   0.135296    -1.573770      4.986438     -12.595348       2.156617
  503   0.135289    -1.625619      4.936743     -12.595370       2.156628
  504   0.135285    -1.636462      4.920369     -12.595375       2.156628
  505   0.135310    -1.630927      4.926311     -12.595380       2.156623
  506   0.135310    -1.601962      4.960066     -12.595417       2.156628
  507   0.135303    -1.610992      4.948123     -12.595404       2.156625
  508   0.135297    -1.616514      4.940349     -12.595451       2.156636
  509   0.135283    -1.597893      4.959366     -12.595468       2.156635
  510   0.135265    -1.570534      4.983673     -12.595461       2.156633
  511   0.135258    -1.564177      4.986762     -12.595434       2.156626
  512   0.135279    -1.567917      4.967486     -12.595441       2.156625
  513   0.135262    -1.552068      4.986770     -12.595421       2.156620
  514   0.135261    -1.531364      5.009766     -12.595412       2.156617
  515   0.135255    -1.540357      4.998230     -12.595399       2.156616
  516   0.135251    -1.541952      4.997140     -12.595409       2.156617
  517   0.135243    -1.563590      4.975052     -12.595387       2.156614
  518   0.135232    -1.567307      4.972970     -12.595392       2.156622
  519   0.135229    -1.560734      4.987558     -12.595399       2.156630

---------------------- Local Time Stepping Summary ----------------------
MG level: 0 -> Min. DT: 2.75997e-06. Max. DT: 7.97315e-06. CFL: 1.01988.
MG level: 1 -> Min. DT: 2.68288e-06. Max. DT: 1.2274e-05. CFL: 0.830529.
MG level: 2 -> Min. DT: 2.15442e-06. Max. DT: 1.99267e-05. CFL: 0.666685.
MG level: 3 -> Min. DT: 1.74923e-06. Max. DT: 3.0345e-05. CFL: 0.541057.
-------------------------------------------------------------------------

----------------------- Residual Evolution Summary ----------------------
log10[Maximum residual]: -0.0759113.
Maximum residual point 26, located at (0.174188, 1.0673).
-------------------------------------------------------------------------

 Iter    Time(s)     Res[Rho]     Res[RhoE]      CL(Total)      CD(Total)
  520   0.135214    -1.574566      4.975276     -12.595378       2.156631
  521   0.135212    -1.603378      4.943421     -12.595375       2.156635
  522   0.135197    -1.607737      4.940851     -12.595380       2.156641
  523   0.135186    -1.619489      4.931769     -12.595345       2.156632
  524   0.135176    -1.641126      4.911568     -12.595348       2.156637
  525   0.135163    -1.646130      4.910862     -12.595320       2.156629
  526   0.135150    -1.607789      4.953668     -12.595293       2.156624
  527   0.135139    -1.559427      5.002084     -12.595269       2.156618
  528   0.135136    -1.566165      4.994400     -12.595256       2.156620
  529   0.135136    -1.570453      4.986160     -12.595247       2.156620
  530   0.135136    -1.570477      4.984959     -12.595265       2.156629
  531   0.135122    -1.562116      4.989830     -12.595273       2.156630
  532   0.135113    -1.553952      4.994772     -12.595292       2.156631
  533   0.135119    -1.518197      5.032048     -12.595292       2.156628
  534   0.135100    -1.527544      5.017058     -12.595286       2.156624
  535   0.135102    -1.545322      4.996397     -12.595304       2.156625
  536   0.135099    -1.533705      5.011302     -12.595299       2.156621
  537   0.135084    -1.560608      4.983816     -12.595307       2.156623
  538   0.135073    -1.588385      4.954859     -12.595321       2.156620
  539   0.135064    -1.580689      4.968563     -12.595299       2.156609
  540   0.135060    -1.618307      4.930170     -12.595295       2.156609
  541   0.135046    -1.625798      4.931660     -12.595314       2.156614
  542   0.135038    -1.623164      4.934518     -12.595340       2.156620
  543   0.135021    -1.600268      4.961476     -12.595365       2.156623
  544   0.135013    -1.609944      4.953936     -12.595383       2.156626
  545   0.134995    -1.638281      4.922064     -12.595394       2.156628
  546   0.134981    -1.614238      4.945050     -12.595413       2.156631
  547   0.134972    -1.588652      4.973503     -12.595420       2.156632
  548   0.134961    -1.584828      4.972557     -12.595432       2.156634
  549   0.134965    -1.596029      4.958310     -12.595444       2.156634
  550   0.134965    -1.577950      4.978296     -12.595444       2.156630
  551   0.134958    -1.579838      4.973909     -12.595425       2.156624
  552   0.134952    -1.581522      4.965572     -12.595421       2.156622
  553   0.134939    -1.569635      4.971970     -12.595414       2.156616
  554   0.134938    -1.565011      4.972443     -12.595392       2.156609
  555   0.134927    -1.542117      4.996877     -12.595378       2.156608
  556   0.134911    -1.544402      4.995291     -12.595372       2.156608
  557   0.134889    -1.552304      4.987244     -12.595382       2.156612
  558   0.134887    -1.588487      4.949974     -12.595379       2.156621
  559   0.134876    -1.582681      4.960731     -12.595382       2.156628

---------------------- Local Time Stepping Summary ----------------------
MG level: 0 -> Min. DT: 2.80071e-06. Max. DT: 8.09083e-06. CFL: 1.03493.
MG level: 1 -> Min. DT: 2.72258e-06. Max. DT: 1.24554e-05. CFL: 0.842789.
MG level: 2 -> Min. DT: 2.1863e-06. Max. DT: 2.02211e-05. CFL: 0.676525.
MG level: 3 -> Min. DT: 1.77512e-06. Max. DT: 3.07926e-05. CFL: 0.549044.
-------------------------------------------------------------------------

----------------------- Residual Evolution Summary ----------------------
log10[Maximum residual]: -0.0713676.
Maximum residual point 26, located at (0.174188, 1.0673).
-------------------------------------------------------------------------

 Iter    Time(s)     Res[Rho]     Res[RhoE]      CL(Total)      CD(Total)
  560   0.134859    -1.598562      4.949935     -12.595406       2.156637
  561   0.134855    -1.608816      4.938852     -12.595391       2.156637
  562   0.134860    -1.598785      4.951322     -12.595401       2.156640
  563   0.134851    -1.572229      4.983400     -12.595399       2.156640
  564   0.134839    -1.591885      4.968089     -12.595359       2.156634
  565   0.134828    -1.624660      4.933014     -12.595337       2.156631
  566   0.134817    -1.615830      4.945249     -12.595317       2.156627
  567   0.134806    -1.600845      4.960651     -12.595293       2.156620
  568   0.134796    -1.598406      4.960361     -12.595300       2.156626
  569   0.134784    -1.590029      4.965704     -12.595285       2.156627
  570   0.134779    -1.543047      5.010364     -12.595286       2.156631
  571   0.134765    -1.572651      4.976630     -12.595274       2.156625
  572   0.134762    -1.558356      4.990491     -12.595299       2.156629
  573   0.134765    -1.534811      5.010786     -12.595306       2.156634
  574   0.134755    -1.513448      5.031365     -12.595310       2.156633
  575   0.134753    -1.519349      5.023852     -12.595283       2.156624
  576   0.134744    -1.536059      5.005516     -12.595275       2.156618
  577   0.134742    -1.571458      4.968049     -12.595297       2.156619
  578   0.134732    -1.556787      4.986574     -12.595320       2.156620
  579   0.134733    -1.560553      4.991866     -12.595305       2.156618
  580   0.134725    -1.604557      4.945180     -12.595331       2.156621
  581   0.134723    -1.607848      4.947014     -12.595328       2.156609
  582   0.134723    -1.642332      4.914744     -12.595371       2.156620
  583   0.134708    -1.627991      4.927946     -12.595376       2.156619
  584   0.134703    -1.627630      4.932435     -12.595404       2.156625
  585   0.134694    -1.595820      4.961950     -12.595410       2.156626
  586   0.134689    -1.623293      4.935996     -12.595440       2.156633
  587   0.134674    -1.600059      4.954156     -12.595473       2.156639
  588   0.134671    -1.588959      4.968545     -12.595479       2.156645
  589   0.134668    -1.596971      4.956964     -12.595455       2.156636
  590   0.134660    -1.579175      4.974214     -12.595442       2.156630
  591   0.134650    -1.581256      4.970582     -12.595417       2.156624
  592   0.134642    -1.569094      4.970773     -12.595415       2.156621
  593   0.134632    -1.567661      4.978770     -12.595384       2.156612
  594   0.134626    -1.535846      5.003435     -12.595359       2.156610
  595   0.134618    -1.546147      4.992409     -12.595351       2.156607
  596   0.134613    -1.543183      4.995137     -12.595338       2.156605
  597   0.134613    -1.546149      4.994615     -12.595337       2.156611
  598   0.134600    -1.569385      4.971614     -12.595377       2.156622
  599   0.134598    -1.571413      4.974002     -12.595375       2.156624

---------------------- Local Time Stepping Summary ----------------------
MG level: 0 -> Min. DT: 2.80292e-06. Max. DT: 8.09722e-06. CFL: 1.03575.
MG level: 1 -> Min. DT: 2.72474e-06. Max. DT: 1.24653e-05. CFL: 0.843454.
MG level: 2 -> Min. DT: 2.18803e-06. Max. DT: 2.02366e-05. CFL: 0.677059.
MG level: 3 -> Min. DT: 1.77652e-06. Max. DT: 3.08171e-05. CFL: 0.549477.
-------------------------------------------------------------------------

----------------------- Residual Evolution Summary ----------------------
log10[Maximum residual]: -0.0740176.
Maximum residual point 26, located at (0.174188, 1.0673).
-------------------------------------------------------------------------

 Iter    Time(s)     Res[Rho]     Res[RhoE]      CL(Total)      CD(Total)
  600   0.134591    -1.583461      4.965026     -12.595380       2.156634
  601   0.134584    -1.588594      4.959792     -12.595375       2.156636
  602   0.134574    -1.595579      4.955571     -12.595375       2.156639
  603   0.134565    -1.630026      4.922583     -12.595360       2.156638
  604   0.134561    -1.594114      4.962786     -12.595320       2.156626
  605   0.134548    -1.603016      4.956617     -12.595300       2.156623
  606   0.134536    -1.606881      4.952454     -12.595309       2.156629
  607   0.134533    -1.599595      4.957840     -12.595289       2.156626
  608   0.134521    -1.586876      4.972177     -12.595295       2.156627
  609   0.134515    -1.582153      4.974534     -12.595268       2.156624
  610   0.134506    -1.573012      4.979736     -12.595258       2.156624
  611   0.134490    -1.563955      4.985884     -12.595277       2.156629
  612   0.134478    -1.539171      5.010179     -12.595288       2.156635
  613   0.134469    -1.515592      5.032424     -12.595319       2.156637
  614   0.134464    -1.503930      5.039660     -12.595311       2.156627
  615   0.134454    -1.527904      5.014900     -12.595308       2.156625
  616   0.134447    -1.557062      4.982600     -12.595298       2.156621
  617   0.134437    -1.580510      4.959370     -12.595324       2.156623
  618   0.134429    -1.571073      4.973436     -12.595358       2.156628
  619   0.134421    -1.590734      4.957788     -12.595335       2.156617
  620   0.134410    -1.600974      4.949565     -12.595353       2.156617
  621   0.134399    -1.630283      4.926175     -12.595386       2.156624
  622   0.134391    -1.638515      4.915309     -12.595388       2.156625
  623   0.134383    -1.616812      4.945332     -12.595409       2.156628
  624   0.134383    -1.571569      4.992007     -12.595441       2.156635
  625   0.134377    -1.585865      4.978915     -12.595423       2.156632
  626   0.134369    -1.589665      4.970994     -12.595419       2.156636
  627   0.134359    -1.574626      4.982382     -12.595471       2.156647
  628   0.134350    -1.600125      4.956370     -12.595464       2.156643
  629   0.134341    -1.578713      4.974066     -12.595435       2.156630
  630   0.134336    -1.579128      4.976244     -12.595445       2.156630
  631   0.134327    -1.573231      4.974722     -12.595398       2.156619
  632   0.134324    -1.603103      4.933955     -12.595373       2.156614
  633   0.134323    -1.573094      4.964531     -12.595354       2.156608
  634   0.134318    -1.538781      5.001606     -12.595327       2.156607
  635   0.134311    -1.550968      4.986688     -12.595279       2.156595
  636   0.134301    -1.558257      4.979831     -12.595323       2.156605
  637   0.134295    -1.566022      4.975167     -12.595322       2.156612
  638   0.134289    -1.567683      4.977391     -12.595353       2.156625
  639   0.134284    -1.570226      4.977893     -12.595357       2.156633

---------------------- Local Time Stepping Summary ----------------------
MG level: 0 -> Min. DT: 2.80875e-06. Max. DT: 8.11408e-06. CFL: 1.0379.
MG level: 1 -> Min. DT: 2.73035e-06. Max. DT: 1.2491e-05. CFL: 0.84521.
MG level: 2 -> Min. DT: 2.19254e-06. Max. DT: 2.02801e-05. CFL: 0.678469.
MG level: 3 -> Min. DT: 1.78018e-06. Max. DT: 3.08814e-05. CFL: 0.550621.
-------------------------------------------------------------------------

----------------------- Residual Evolution Summary ----------------------
log10[Maximum residual]: -0.0864304.
Maximum residual point 26, located at (0.174188, 1.0673).
-------------------------------------------------------------------------

 Iter    Time(s)     Res[Rho]     Res[RhoE]      CL(Total)      CD(Total)
  640   0.134288    -1.602802      4.945474     -12.595357       2.156639
  641   0.134283    -1.636415      4.908234     -12.595360       2.156636
  642   0.134270    -1.613323      4.936130     -12.595348       2.156635
  643   0.134260    -1.599196      4.956313     -12.595311       2.156629
  644   0.134245    -1.639390      4.917721     -12.595300       2.156626
  645   0.134240    -1.616104      4.941690     -12.595316       2.156628
  646   0.134236    -1.585596      4.974617     -12.595289       2.156623
  647   0.134229    -1.594126      4.966933     -12.595282       2.156620
  648   0.134220    -1.595784      4.960468     -12.595289       2.156626
  649   0.134209    -1.571056      4.985448     -12.595272       2.156621
  650   0.134196    -1.550236      5.004150     -12.595308       2.156629
  651   0.134193    -1.556508      4.993101     -12.595342       2.156635
  652   0.134189    -1.537449      5.011869     -12.595330       2.156631
  653   0.134187    -1.530916      5.016809     -12.595319       2.156626
  654   0.134183    -1.529759      5.013727     -12.595327       2.156626
  655   0.134173    -1.566854      4.971804     -12.595295       2.156618
  656   0.134181    -1.567693      4.970854     -12.595319       2.156622
  657   0.134184    -1.566903      4.977453     -12.595323       2.156617
  658   0.134177    -1.578003      4.970287     -12.595315       2.156616
  659   0.134173    -1.586141      4.966460     -12.595315       2.156614
  660   0.134172    -1.611586      4.940895     -12.595367       2.156621
  661   0.134161    -1.627808      4.924659     -12.595335       2.156612
  662   0.134149    -1.644287      4.913404     -12.595375       2.156625
  663   0.134141    -1.595964      4.963000     -12.595410       2.156630
  664   0.134129    -1.598099      4.965672     -12.595413       2.156631
  665   0.134125    -1.633619      4.926384     -12.595388       2.156624
  666   0.134120    -1.607846      4.949759     -12.595435       2.156634
  667   0.134118    -1.595012      4.961896     -12.595464       2.156638
  668   0.134108    -1.605292      4.949530     -12.595461       2.156640
  669   0.134140    -1.607739      4.945002     -12.595460       2.156637
  670   0.134145    -1.604212      4.948611     -12.595465       2.156633
  671   0.134148    -1.571027      4.976380     -12.595435       2.156624
  672   0.134154    -1.585357      4.953964     -12.595403       2.156615
  673   0.134154    -1.551246      4.990346     -12.595367       2.156604
  674   0.134162    -1.539334      4.998460     -12.595323       2.156600
  675   0.134154    -1.540724      4.997201     -12.595305       2.156597
  676   0.134158    -1.550273      4.987097     -12.595326       2.156605
  677   0.134155    -1.551946      4.989071     -12.595354       2.156619
  678   0.134149    -1.584604      4.955920     -12.595398       2.156631
  679   0.134152    -1.578149      4.968601     -12.595370       2.156629

---------------------- Local Time Stepping Summary ----------------------
MG level: 0 -> Min. DT: 2.7909e-06. Max. DT: 8.06248e-06. CFL: 1.0313.
MG level: 1 -> Min. DT: 2.71294e-06. Max. DT: 1.24116e-05. CFL: 0.839835.
MG level: 2 -> Min. DT: 2.17856e-06. Max. DT: 2.01509e-05. CFL: 0.674154.
MG level: 3 -> Min. DT: 1.76883e-06. Max. DT: 3.06851e-05. CFL: 0.54712.
-------------------------------------------------------------------------

----------------------- Residual Evolution Summary ----------------------
log10[Maximum residual]: -0.0822448.
Maximum residual point 26, located at (0.174188, 1.0673).
-------------------------------------------------------------------------

 Iter    Time(s)     Res[Rho]     Res[RhoE]      CL(Total)      CD(Total)
  680   0.134161    -1.586066      4.962497     -12.595381       2.156635
  681   0.134164    -1.589713      4.959709     -12.595388       2.156639
  682   0.134172    -1.618072      4.932670     -12.595363       2.156637
  683   0.134175    -1.650446      4.901650     -12.595338       2.156632
  684   0.134171    -1.614472      4.939164     -12.595318       2.156624
  685   0.134173    -1.612247      4.946623     -12.595302       2.156620
  686   0.134166    -1.618757      4.937137     -12.595325       2.156632
  687   0.134160    -1.604587      4.952460     -12.595300       2.156627
  688   0.134172    -1.591942      4.965228     -12.595290       2.156629
  689   0.134167    -1.548861      5.008915     -12.595291       2.156630
  690   0.134161    -1.544334      5.009763     -12.595299       2.156632
  691   0.134169    -1.553511      4.996354     -12.595274       2.156625
  692   0.134171    -1.535898      5.011525     -12.595290       2.156626
  693   0.134178    -1.533296      5.008737     -12.595293       2.156624
  694   0.134174    -1.540274      4.998965     -12.595307       2.156625
  695   0.134173    -1.541681      4.999391     -12.595301       2.156621
  696   0.134167    -1.558154      4.982364     -12.595326       2.156623
  697   0.134175    -1.582214      4.960903     -12.595309       2.156615
  698   0.134164    -1.613043      4.928339     -12.595333       2.156618
  699   0.134160    -1.601964      4.945746     -12.595353       2.156619
  700   0.134155    -1.597280      4.956574     -12.595353       2.156621
  701   0.134148    -1.641195      4.913690     -12.595378       2.156627
  702   0.134147    -1.613261      4.942995     -12.595393       2.156628
  703   0.134149    -1.600582      4.960726     -12.595393       2.156619
  704   0.134152    -1.606755      4.953165     -12.595448       2.156629
  705   0.134151    -1.613425      4.942889     -12.595444       2.156631
  706   0.134147    -1.602497      4.952111     -12.595460       2.156639
  707   0.134147    -1.612183      4.937711     -12.595482       2.156643
  708   0.134149    -1.597348      4.954523     -12.595475       2.156641
  709   0.134146    -1.562211      4.991025     -12.595457       2.156637
  710   0.134145    -1.530566      5.025339     -12.595459       2.156635
  711   0.134143    -1.544826      5.000428     -12.595446       2.156625
  712   0.134130    -1.555778      4.991879     -12.595421       2.156619
  713   0.134133    -1.560136      4.975597     -12.595386       2.156613
  714   0.134137    -1.540716      4.998120     -12.595356       2.156608
  715   0.134137    -1.549223      4.988762     -12.595329       2.156603
  716   0.134139    -1.539725      5.001018     -12.595327       2.156611
  717   0.134146    -1.561902      4.981236     -12.595320       2.156617
  718   0.134162    -1.583122      4.961398     -12.595328       2.156625
  719   0.134164    -1.578715      4.969889     -12.595324       2.156629

---------------------- Local Time Stepping Summary ----------------------
MG level: 0 -> Min. DT: 2.80465e-06. Max. DT: 8.10222e-06. CFL: 1.03639.
MG level: 1 -> Min. DT: 2.7263e-06. Max. DT: 1.24728e-05. CFL: 0.843975.
MG level: 2 -> Min. DT: 2.18929e-06. Max. DT: 2.02487e-05. CFL: 0.677478.
MG level: 3 -> Min. DT: 1.77755e-06. Max. DT: 3.08364e-05. CFL: 0.549817.
-------------------------------------------------------------------------

----------------------- Residual Evolution Summary ----------------------
log10[Maximum residual]: -0.0968971.
Maximum residual point 26, located at (0.174188, 1.0673).
-------------------------------------------------------------------------

 Iter    Time(s)     Res[Rho]     Res[RhoE]      CL(Total)      CD(Total)
  720   0.134170    -1.599830      4.950455     -12.595313       2.156630
  721   0.134169    -1.601928      4.948403     -12.595307       2.156626
  722   0.134168    -1.604814      4.949014     -12.595338       2.156634
  723   0.134168    -1.617863      4.941308     -12.595316       2.156628
  724   0.134174    -1.601257      4.959867     -12.595293       2.156626
  725   0.134180    -1.601761      4.959072     -12.595289       2.156625
  726   0.134184    -1.617996      4.940834     -12.595301       2.156623
  727   0.134188    -1.608380      4.949178     -12.595314       2.156626
  728   0.134217    -1.587941      4.967690     -12.595327       2.156631
  729   0.134237    -1.571946      4.982813     -12.595313       2.156628
  730   0.134235    -1.543736      5.009804     -12.595324       2.156631
  731   0.134234    -1.550042      5.000286     -12.595324       2.156630
  732   0.134253    -1.547151      4.999262     -12.595347       2.156637
  733   0.134275    -1.530732      5.013778     -12.595337       2.156632
  734   0.134295    -1.530070      5.015411     -12.595357       2.156634
  735   0.134312    -1.535241      5.009957     -12.595336       2.156624
  736   0.134324    -1.555445      4.989951     -12.595346       2.156626
  737   0.134348    -1.590963      4.954683     -12.595326       2.156616
  738   0.134359    -1.604991      4.939627     -12.595356       2.156620
  739   0.134400    -1.590726      4.958626     -12.595344       2.156616
  740   0.134455    -1.617213      4.937186     -12.595379       2.156625
  741   0.134491    -1.629549      4.927617     -12.595401       2.156627
  742   0.134530    -1.627498      4.931779     -12.595408       2.156630
  743   0.134539    -1.609798      4.950933     -12.595398       2.156626
[...]
  692   0.060289     0.230133      6.536811     -12.549922       2.169373
  693   0.060284     0.204105      6.517924     -12.554800       2.169421
  694   0.060280     0.180189      6.498008     -12.559910       2.169470
  695   0.060276     0.180648      6.495826     -12.565276       2.169522
  696   0.060271     0.212406      6.515608     -12.570425       2.169572
  697   0.060264     0.247855      6.536265     -12.575098       2.169618
  698   0.060258     0.266995      6.543807     -12.579551       2.169661
  699   0.060254     0.272412      6.542651     -12.583610       2.169700
  700   0.060247     0.259354      6.526791     -12.586976       2.169733
  701   0.060242     0.233111      6.501352     -12.589542       2.169758
  702   0.060239     0.203124      6.470252     -12.591343       2.169775
  703   0.060236     0.177541      6.442518     -12.592530       2.169787
  704   0.060232     0.151255      6.416549     -12.593308       2.169794
  705   0.060228     0.112472      6.386137     -12.593770       2.169799
  706   0.060224     0.057047      6.342989     -12.593994       2.169801
  707   0.060218    -0.017471      6.279833     -12.594050       2.169802
  708   0.060213    -0.108340      6.194787     -12.593985       2.169801
  709   0.060206    -0.214807      6.089860     -12.593869       2.169800
  710   0.060201    -0.346458      5.964245     -12.593760       2.169799
  711   0.060196    -0.516924      5.802138     -12.593696       2.169798
  712   0.060188    -0.733034      5.585270     -12.593696       2.169798
  713   0.060184    -0.985783      5.325295     -12.593752       2.169799
  714   0.060185    -1.278187      5.028038     -12.593834       2.169799
  715   0.060187    -1.677577      4.621498     -12.593896       2.169800
  716   0.060188    -2.162039      4.137775     -12.593922       2.169800
  717   0.060195    -2.757080      3.560340     -12.593927       2.169800
  718   0.060209    -3.096513      3.240817     -12.593926       2.169800
  719   0.060223    -3.229566      3.114791     -12.593925       2.169800

---------------------- Local Time Stepping Summary ----------------------
MG level: 0 -> Min. DT: 0.000152636. Max. DT: 0.000436984. CFL: 56.4187.
MG level: 1 -> Min. DT: 0.000148368. Max. DT: 0.000679903. CFL: 45.9442.
MG level: 2 -> Min. DT: 0.000119139. Max. DT: 0.00109833. CFL: 36.8805.
-------------------------------------------------------------------------

----------------------- Residual Evolution Summary ----------------------
log10[Maximum residual]: -1.79059.
Maximum residual point 291, located at (10.8505, 0.199421).
-------------------------------------------------------------------------

 Iter    Time(s)     Res[Rho]     Res[RhoE]      CL(Total)      CD(Total)
  720   0.060233    -3.311812      3.038076     -12.593926       2.169800
  721   0.060245    -3.379179      2.976278     -12.593926       2.169800
  722   0.060257    -3.438240      2.922884     -12.593926       2.169800
  723   0.060267    -3.491083      2.875604     -12.593926       2.169800
  724   0.060277    -3.538912      2.833202     -12.593926       2.169800
  725   0.060287    -3.582586      2.794700     -12.593926       2.169800
  726   0.060296    -3.622753      2.759473     -12.593926       2.169800
  727   0.060307    -3.659918      2.726967     -12.593926       2.169800
  728   0.060318    -3.694481      2.696827     -12.593926       2.169800
  729   0.060329    -3.726766      2.668710     -12.593926       2.169800
  730   0.060339    -3.757042      2.642397     -12.593926       2.169800
  731   0.060349    -3.785574      2.617621     -12.593926       2.169800
  732   0.060359    -3.813905      2.593038     -12.593926       2.169800
  733   0.060369    -3.842026      2.568670     -12.593926       2.169800
  734   0.060378    -3.869992      2.544508     -12.593926       2.169800
  735   0.060388    -3.897862      2.520506     -12.593926       2.169800
  736   0.060401    -3.925691      2.496651     -12.593926       2.169800
  737   0.060411    -3.953521      2.472916     -12.593926       2.169800
  738   0.060422    -3.981387      2.449299     -12.593926       2.169800
  739   0.060432    -4.009314      2.425789     -12.593926       2.169800
  740   0.060442    -4.037320      2.402392     -12.593926       2.169800
  741   0.060453    -4.065412      2.379111     -12.593926       2.169800
  742   0.060463    -4.093594      2.355958     -12.593926       2.169800
  743   0.060472    -4.121859      2.332942     -12.593926       2.169800
  744   0.060482    -4.150200      2.310080     -12.593926       2.169800
  745   0.060492    -4.178599      2.287387     -12.593926       2.169800
  746   0.060502    -4.207038      2.264878     -12.593926       2.169800
  747   0.060517    -4.235494      2.242570     -12.593926       2.169800
  748   0.060531    -4.263941      2.220474     -12.593926       2.169800
  749   0.060547    -4.292348      2.198609     -12.593926       2.169800

------------------------ Evaluate Special Output ------------------------
Writing the forces breakdown file (forces_breakdown.dat).
-------------------------------------------------------------------------

  750   0.060564    -4.320684      2.176986     -12.593926       2.169800

-------------------------- File Output Summary --------------------------
Writing comma-separated values (CSV) surface files.
Loading solution output data locally on each rank.
Sorting output data across all ranks.
Writing binary SU2 native restart file.
Preparing element connectivity across all ranks.
Writing Paraview ASCII volume solution file.
Writing Paraview ASCII surface solution file.
-------------------------------------------------------------------------

  751   0.060721    -4.348914      2.155621     -12.593926       2.169800
  752   0.060741    -4.377003      2.134523     -12.593926       2.169800
  753   0.060756    -4.404914      2.113701     -12.593926       2.169800
  754   0.060771    -4.432608      2.093163     -12.593926       2.169800
  755   0.060788    -4.460048      2.072915     -12.593926       2.169800
  756   0.060805    -4.487197      2.052960     -12.593926       2.169800
  757   0.060825    -4.514016      2.033302     -12.593926       2.169800
  758   0.060845    -4.540470      2.013941     -12.593926       2.169800
  759   0.060862    -4.566524      1.994877     -12.593926       2.169800

---------------------- Local Time Stepping Summary ----------------------
MG level: 0 -> Min. DT: 0.000270271. Max. DT: 0.000773762. CFL: 99.9.
MG level: 1 -> Min. DT: 0.000262713. Max. DT: 0.0012039. CFL: 81.353.
MG level: 2 -> Min. DT: 0.000210958. Max. DT: 0.00194479. CFL: 65.3039.
-------------------------------------------------------------------------

----------------------- Residual Evolution Summary ----------------------
log10[Maximum residual]: -3.17812.
Maximum residual point 12544, located at (10.7665, 0.94239).
-------------------------------------------------------------------------

 Iter    Time(s)     Res[Rho]     Res[RhoE]      CL(Total)      CD(Total)
  760   0.060881    -4.592145      1.976107     -12.593926       2.169800
  761   0.060901    -4.617303      1.957630     -12.593926       2.169800
  762   0.060921    -4.641971      1.939440     -12.593926       2.169800
  763   0.060939    -4.666122      1.921534     -12.593926       2.169800
  764   0.060961    -4.689737      1.903906     -12.593926       2.169800
  765   0.060980    -4.712796      1.886551     -12.593926       2.169800
  766   0.060999    -4.735284      1.869462     -12.593926       2.169800
  767   0.061019    -4.757192      1.852635     -12.593926       2.169800
  768   0.061039    -4.778509      1.836063     -12.593926       2.169800
  769   0.061058    -4.799232      1.819741     -12.593926       2.169800
  770   0.061079    -4.819360      1.803661     -12.593926       2.169800
  771   0.061096    -4.838895      1.787820     -12.593926       2.169800
  772   0.061115    -4.857839      1.772212     -12.593926       2.169800
  773   0.061134    -4.876201      1.756832     -12.593926       2.169800
  774   0.061153    -4.893989      1.741675     -12.593926       2.169800
  775   0.061171    -4.911215      1.726738     -12.593926       2.169800
  776   0.061193    -4.927891      1.712016     -12.593926       2.169800
  777   0.061210    -4.944031      1.697505     -12.593926       2.169800
  778   0.061229    -4.959649      1.683203     -12.593926       2.169800
  779   0.061247    -4.974764      1.669107     -12.593926       2.169800
  780   0.061266    -4.989390      1.655213     -12.593926       2.169800
  781   0.061284    -5.003547      1.641519     -12.593926       2.169800
  782   0.061303    -5.017250      1.628022     -12.593926       2.169800
  783   0.061323    -5.030520      1.614721     -12.593926       2.169800
  784   0.061341    -5.043373      1.601613     -12.593926       2.169800
  785   0.061357    -5.055828      1.588695     -12.593926       2.169800
  786   0.061373    -5.067903      1.575966     -12.593926       2.169800
  787   0.061391    -5.079618      1.563424     -12.593926       2.169800
  788   0.061408    -5.090988      1.551066     -12.593926       2.169800
  789   0.061423    -5.102033      1.538890     -12.593926       2.169800
  790   0.061439    -5.112768      1.526895     -12.593926       2.169800
  791   0.061457    -5.123212      1.515078     -12.593926       2.169800
  792   0.061475    -5.133380      1.503436     -12.593926       2.169800
  793   0.061492    -5.143290      1.491968     -12.593926       2.169800
  794   0.061510    -5.152955      1.480670     -12.593926       2.169800
  795   0.061526    -5.162391      1.469541     -12.593926       2.169800
  796   0.061543    -5.171613      1.458577     -12.593926       2.169800
  797   0.061564    -5.180634      1.447776     -12.593926       2.169800
  798   0.061581    -5.189467      1.437136     -12.593926       2.169800
  799   0.061601    -5.198126      1.426652     -12.593926       2.169800

---------------------- Local Time Stepping Summary ----------------------
MG level: 0 -> Min. DT: 0.00027027. Max. DT: 0.000773762. CFL: 99.9.
MG level: 1 -> Min. DT: 0.000262713. Max. DT: 0.0012039. CFL: 81.353.
MG level: 2 -> Min. DT: 0.000210958. Max. DT: 0.00194479. CFL: 65.3039.
-------------------------------------------------------------------------

----------------------- Residual Evolution Summary ----------------------
log10[Maximum residual]: -3.71018.
Maximum residual point 11389, located at (10.4916, 2.94772).
-------------------------------------------------------------------------

 Iter    Time(s)     Res[Rho]     Res[RhoE]      CL(Total)      CD(Total)
  800   0.061622    -5.206605      1.416332     -12.593926       2.169800
  801   0.061649    -5.214930      1.406165     -12.593926       2.169800
  802   0.061671    -5.223105      1.396153     -12.593926       2.169800
  803   0.061693    -5.231142      1.386291     -12.593926       2.169800
  804   0.061716    -5.239050      1.376576     -12.593926       2.169800
  805   0.061738    -5.246840      1.367005     -12.593926       2.169800
  806   0.061760    -5.254520      1.357574     -12.593926       2.169800
  807   0.061780    -5.262097      1.348280     -12.593926       2.169800
  808   0.061803    -5.269579      1.339120     -12.593926       2.169800
  809   0.061823    -5.276972      1.330090     -12.593926       2.169800
  810   0.061844    -5.284282      1.321188     -12.593926       2.169800
  811   0.061869    -5.291515      1.312410     -12.593926       2.169800
  812   0.061892    -5.298674      1.303754     -12.593926       2.169800
  813   0.061918    -5.305765      1.295217     -12.593926       2.169800
  814   0.061942    -5.312792      1.286796     -12.593926       2.169800
  815   0.061963    -5.319757      1.278489     -12.593926       2.169800
  816   0.061984    -5.326663      1.270292     -12.593926       2.169800
  817   0.062004    -5.333513      1.262204     -12.593926       2.169800
  818   0.062025    -5.340310      1.254223     -12.593926       2.169800
  819   0.062045    -5.347054      1.246345     -12.593926       2.169800
  820   0.062067    -5.353748      1.238569     -12.593926       2.169800
  821   0.062087    -5.360392      1.230892     -12.593926       2.169800
  822   0.062111    -5.366989      1.223313     -12.593926       2.169800
  823   0.062134    -5.373537      1.215831     -12.593926       2.169800
  824   0.062155    -5.380039      1.208442     -12.593926       2.169800
  825   0.062184    -5.386493      1.201145     -12.593926       2.169800
  826   0.062217    -5.392902      1.193939     -12.593926       2.169800
  827   0.062248    -5.399263      1.186824     -12.593926       2.169800
  828   0.062273    -5.405579      1.179795     -12.593926       2.169800
  829   0.062298    -5.411846      1.172854     -12.593926       2.169800
  830   0.062320    -5.418067      1.165997     -12.593926       2.169800
  831   0.062341    -5.424239      1.159226     -12.593926       2.169800
  832   0.062362    -5.430364      1.152536     -12.593926       2.169800
  833   0.062386    -5.436439      1.145930     -12.593926       2.169800
  834   0.062407    -5.442464      1.139405     -12.593926       2.169800
  835   0.062428    -5.448439      1.132960     -12.593926       2.169800
  836   0.062449    -5.454364      1.126595     -12.593926       2.169800
  837   0.062470    -5.460236      1.120309     -12.593926       2.169800
  838   0.062495    -5.466056      1.114099     -12.593926       2.169800
  839   0.062519    -5.471823      1.107968     -12.593926       2.169800

---------------------- Local Time Stepping Summary ----------------------
MG level: 0 -> Min. DT: 0.00027027. Max. DT: 0.000773762. CFL: 99.9.
MG level: 1 -> Min. DT: 0.000262713. Max. DT: 0.0012039. CFL: 81.353.
MG level: 2 -> Min. DT: 0.000210958. Max. DT: 0.00194479. CFL: 65.3039.
-------------------------------------------------------------------------

----------------------- Residual Evolution Summary ----------------------
log10[Maximum residual]: -3.81819.
Maximum residual point 224, located at (10.2782, 2.98576).
-------------------------------------------------------------------------

 Iter    Time(s)     Res[Rho]     Res[RhoE]      CL(Total)      CD(Total)
  840   0.062544    -5.477537      1.101913     -12.593926       2.169800
  841   0.062567    -5.483195      1.095934     -12.593926       2.169800
  842   0.062588    -5.488799      1.090030     -12.593926       2.169800
  843   0.062608    -5.494347      1.084200     -12.593926       2.169800
  844   0.062631    -5.499840      1.078444     -12.593926       2.169800
  845   0.062655    -5.505275      1.072761     -12.593926       2.169800
  846   0.062676    -5.510654      1.067150     -12.593926       2.169800
  847   0.062697    -5.515975      1.061612     -12.593926       2.169800
  848   0.062719    -5.521239      1.056143     -12.593926       2.169800
  849   0.062739    -5.526444      1.050746     -12.593926       2.169800
  850   0.062760    -5.531593      1.045417     -12.593926       2.169800
  851   0.062781    -5.536682      1.040158     -12.593926       2.169800
  852   0.062808    -5.541715      1.034967     -12.593926       2.169800
  853   0.062830    -5.546688      1.029843     -12.593926       2.169800
  854   0.062852    -5.551605      1.024785     -12.593926       2.169800
  855   0.062873    -5.556462      1.019793     -12.593926       2.169800
  856   0.062889    -5.561263      1.014865     -12.593926       2.169800
  857   0.062911    -5.566007      1.010002     -12.593926       2.169800
  858   0.062930    -5.570694      1.005201     -12.593926       2.169800
  859   0.062949    -5.575323      1.000464     -12.593926       2.169800
  860   0.062970    -5.579898      0.995786     -12.593926       2.169800
  861   0.062989    -5.584416      0.991170     -12.593926       2.169800
  862   0.063009    -5.588880      0.986612     -12.593926       2.169800
  863   0.063029    -5.593289      0.982113     -12.593926       2.169800
  864   0.063050    -5.597646      0.977671     -12.593926       2.169800
  865   0.063070    -5.601948      0.973286     -12.593926       2.169800
  866   0.063089    -5.606199      0.968955     -12.593926       2.169800
  867   0.063108    -5.610398      0.964680     -12.593926       2.169800
  868   0.063127    -5.614547      0.960457     -12.593926       2.169800
  869   0.063148    -5.618645      0.956287     -12.593926       2.169800
  870   0.063167    -5.622695      0.952168     -12.593926       2.169800
  871   0.063186    -5.626696      0.948100     -12.593926       2.169800
  872   0.063206    -5.630650      0.944080     -12.593926       2.169800
  873   0.063225    -5.634557      0.940110     -12.593926       2.169800
  874   0.063244    -5.638419      0.936186     -12.593926       2.169800
  875   0.063264    -5.642236      0.932309     -12.593926       2.169800
  876   0.063284    -5.646010      0.928476     -12.593926       2.169800
  877   0.063299    -5.649739      0.924689     -12.593926       2.169800
  878   0.063320    -5.653428      0.920943     -12.593926       2.169800
  879   0.063339    -5.657075      0.917242     -12.593926       2.169800

---------------------- Local Time Stepping Summary ----------------------
MG level: 0 -> Min. DT: 0.00027027. Max. DT: 0.000773762. CFL: 99.9.
MG level: 1 -> Min. DT: 0.000262713. Max. DT: 0.0012039. CFL: 81.353.
MG level: 2 -> Min. DT: 0.000210958. Max. DT: 0.00194479. CFL: 65.3039.
-------------------------------------------------------------------------

----------------------- Residual Evolution Summary ----------------------
log10[Maximum residual]: -3.93895.
Maximum residual point 224, located at (10.2782, 2.98576).
-------------------------------------------------------------------------

 Iter    Time(s)     Res[Rho]     Res[RhoE]      CL(Total)      CD(Total)
  880   0.063358    -5.660682      0.913580     -12.593926       2.169800
  881   0.063378    -5.664249      0.909960     -12.593926       2.169800
  882   0.063399    -5.667779      0.906379     -12.593926       2.169800
  883   0.063417    -5.671270      0.902837     -12.593926       2.169800
  884   0.063437    -5.674725      0.899331     -12.593926       2.169800
  885   0.063455    -5.678143      0.895864     -12.593926       2.169800
  886   0.063472    -5.681527      0.892432     -12.593926       2.169800
  887   0.063492    -5.684876      0.889036     -12.593926       2.169800
  888   0.063515    -5.688192      0.885673     -12.593926       2.169800
  889   0.063536    -5.691475      0.882344     -12.593926       2.169800
  890   0.063557    -5.694727      0.879048     -12.593926       2.169800
  891   0.063577    -5.697947      0.875784     -12.593926       2.169800

-------------------------- File Output Summary --------------------------
Writing comma-separated values (CSV) surface files.
Loading solution output data locally on each rank.
Sorting output data across all ranks.
Writing binary SU2 native restart file.
Preparing element connectivity across all ranks.
Writing Paraview ASCII volume solution file.
Writing Paraview ASCII surface solution file.
-------------------------------------------------------------------------


------------------------- Solver Postprocessing -------------------------
Deleted CNumerics container.
Deleted CIntegration container.
Deleted CSolver container.
Deleted CIteration container.
Deleted CInterpolator container.
Deleted CTransfer container.
Deleted CGeometry container.
Deleted CFreeFormDefBox class.
Deleted CSurfaceMovement class.
Deleted CVolumetricMovement class.
Deleted CConfig container.
Deleted COutput class.
-------------------------------------------------------------------------

Completed in 56.810566 seconds on 1 core.

------------------------- Exit Success (SU2_CFD) ------------------------